{"a":["8853,4,8","31593,0,6","28263,5,5","28248,1,2","25060,8,1"],"d":["27699,1,9","24970,6,8","8841,8,8","28727,3,6","28900,9,5","1790,11,4","31516,11,3"],"o":"12,10,SEAWATER"}