{"a":["28246,6,8","27724,0,7","8853,5,6","28248,3,4","9540,6,2","28727,1,1","31612,7,0"],"d":["27344,10,9","28723,3,8","24970,6,8","31593,1,4","23408,9,4"],"o":"12,10,SEAWATER"}